models/ieee9500/BalancedLoads.dss
!Balanced Loads Definition 
 
New Load.138236B0 phases=2 Bus1=SX2673305B.1.2 kv=0.208 status=variable Model=1 conn=wye kW=5.890000000000004 pf=0.97 Vmin=.88
New Load.138237B0 phases=2 Bus1=SX3048196B.1.2 kv=0.208 status=variable Model=1 conn=wye kW=5.84 pf=0.97 Vmin=.88
New Load.138258C0 phases=2 Bus1=SX2991911C.1.2 kv=0.208 status=variable Model=1 conn=wye kW=8.100000000000001 pf=0.97 Vmin=.88
New Load.138259C0 phases=2 Bus1=SX2973158C.1.2 kv=0.208 status=variable Model=1 conn=wye kW=8.099999999999996 pf=0.97 Vmin=.88
New Load.138260A0 phases=2 Bus1=SX3048208A.1.2 kv=0.208 status=variable Model=1 conn=wye kW=5.32 pf=0.97 Vmin=.88
New Load.138262A0 phases=2 Bus1=SX3029502A.1.2 kv=0.208 status=variable Model=1 conn=wye kW=17.74000000000003 pf=0.97 Vmin=.88
New Load.138264B0 phases=2 Bus1=SX3104125B.1.2 kv=0.208 status=variable Model=1 conn=wye kW=13.730000000000004 pf=0.97 Vmin=.88
New Load.138265A0 phases=2 Bus1=SX3160107A.1.2 kv=0.208 status=variable Model=1 conn=wye kW=8.870000000000001 pf=0.97 Vmin=.88
New Load.138294B0 phases=2 Bus1=SX2785516B.1.2 kv=0.208 status=variable Model=1 conn=wye kW=8.839999999999996 pf=0.97 Vmin=.88
New Load.138313A0 phases=2 Bus1=SX3141400A.1.2 kv=0.208 status=variable Model=1 conn=wye kW=7.5500000000000025 pf=0.97 Vmin=.88
New Load.138342C0 phases=2 Bus1=SX2897775C.1.2 kv=0.208 status=variable Model=1 conn=wye kW=10.17 pf=0.97 Vmin=.88
New Load.138343C0 phases=2 Bus1=SX3010565C.1.2 kv=0.208 status=variable Model=1 conn=wye kW=4.07 pf=0.97 Vmin=.88
New Load.138346C0 phases=2 Bus1=SX2916609C.1.2 kv=0.208 status=variable Model=1 conn=wye kW=10.099999999999994 pf=0.97 Vmin=.88
New Load.138371C0 phases=2 Bus1=SX2879073C.1.2 kv=0.208 status=variable Model=1 conn=wye kW=9.100000000000003 pf=0.97 Vmin=.88
New Load.138372C0 phases=2 Bus1=SX3104126C.1.2 kv=0.208 status=variable Model=1 conn=wye kW=7.0699999999999985 pf=0.97 Vmin=.88
New Load.138373C0 phases=2 Bus1=SX3029503C.1.2 kv=0.208 status=variable Model=1 conn=wye kW=6.1 pf=0.97 Vmin=.88
New Load.138374C0 phases=2 Bus1=SX2691950C.1.2 kv=0.208 status=variable Model=1 conn=wye kW=10.17 pf=0.97 Vmin=.88
New Load.138379C0 phases=2 Bus1=SX2691951C.1.2 kv=0.208 status=variable Model=1 conn=wye kW=10.17 pf=0.97 Vmin=.88
New Load.138380C0 phases=2 Bus1=SX2879076C.1.2 kv=0.208 status=variable Model=1 conn=wye kW=4.07 pf=0.97 Vmin=.88
New Load.138404C0 phases=2 Bus1=SX2841630C.1.2 kv=0.208 status=variable Model=1 conn=wye kW=10.170000000000002 pf=0.97 Vmin=.88
New Load.138405C0 phases=2 Bus1=SX2841629C.1.2 kv=0.208 status=variable Model=1 conn=wye kW=15.26 pf=0.97 Vmin=.88
New Load.138412C0 phases=2 Bus1=SX2785523C.1.2 kv=0.208 status=variable Model=1 conn=wye kW=6.1 pf=0.97 Vmin=.88
New Load.138413C0 phases=2 Bus1=SX3216347C.1.2 kv=0.208 status=variable Model=1 conn=wye kW=6.1 pf=0.97 Vmin=.88
New Load.138416C0 phases=2 Bus1=SX3141388C.1.2 kv=0.208 status=variable Model=1 conn=wye kW=4.07 pf=0.97 Vmin=.88
New Load.138464C0 phases=2 Bus1=SX3066801C.1.2 kv=0.208 status=variable Model=1 conn=wye kW=4.07 pf=0.97 Vmin=.88
New Load.138465C0 phases=2 Bus1=SX2879055C.1.2 kv=0.208 status=variable Model=1 conn=wye kW=7.07 pf=0.97 Vmin=.88
New Load.138466C0 phases=2 Bus1=SX2973144C.1.2 kv=0.208 status=variable Model=1 conn=wye kW=10.17 pf=0.97 Vmin=.88
New Load.138469C0 phases=2 Bus1=SX2785518C.1.2 kv=0.208 status=variable Model=1 conn=wye kW=6.1000000000000005 pf=0.97 Vmin=.88
New Load.138470C0 phases=2 Bus1=SX2766717C.1.2 kv=0.208 status=variable Model=1 conn=wye kW=4.07 pf=0.97 Vmin=.88
New Load.138472C0 phases=2 Bus1=SX2673309C.1.2 kv=0.208 status=variable Model=1 conn=wye kW=13.17 pf=0.97 Vmin=.88
New Load.138560A0 phases=2 Bus1=SX3104113A.1.2 kv=0.208 status=variable Model=1 conn=wye kW=8.870000000000001 pf=0.97 Vmin=.88
New Load.138561A0 phases=2 Bus1=SX3104121A.1.2 kv=0.208 status=variable Model=1 conn=wye kW=8.87 pf=0.97 Vmin=.88
New Load.138562A0 phases=2 Bus1=SX2673310A.1.2 kv=0.208 status=variable Model=1 conn=wye kW=8.870000000000001 pf=0.97 Vmin=.88
New Load.138563A0 phases=2 Bus1=SX2916627A.1.2 kv=0.208 status=variable Model=1 conn=wye kW=8.87 pf=0.97 Vmin=.88
New Load.138564A0 phases=2 Bus1=SX2804283A.1.2 kv=0.208 status=variable Model=1 conn=wye kW=8.87 pf=0.97 Vmin=.88
New Load.138565A0 phases=2 Bus1=SX3104122A.1.2 kv=0.208 status=variable Model=1 conn=wye kW=12.869999999999996 pf=0.97 Vmin=.88
New Load.138566A0 phases=2 Bus1=SX2785519A.1.2 kv=0.208 status=variable Model=1 conn=wye kW=12.869999999999997 pf=0.97 Vmin=.88
New Load.138567A0 phases=2 Bus1=SX2748129A.1.2 kv=0.208 status=variable Model=1 conn=wye kW=16.299999999999958 pf=0.97 Vmin=.88
New Load.138569A0 phases=2 Bus1=SX2973151A.1.2 kv=0.208 status=variable Model=1 conn=wye kW=5.32000000000001 pf=0.97 Vmin=.88
New Load.138570A0 phases=2 Bus1=SX2748146A.1.2 kv=0.208 status=variable Model=1 conn=wye kW=8.32 pf=0.97 Vmin=.88
New Load.138571A0 phases=2 Bus1=SX2991913A.1.2 kv=0.208 status=variable Model=1 conn=wye kW=5.32 pf=0.97 Vmin=.88
New Load.138573A0 phases=2 Bus1=SX3235253A.1.2 kv=0.208 status=variable Model=1 conn=wye kW=8.87 pf=0.97 Vmin=.88
New Load.138574A0 phases=2 Bus1=SX2991907A.1.2 kv=0.208 status=variable Model=1 conn=wye kW=8.870000000000001 pf=0.97 Vmin=.88
New Load.138581A0 phases=2 Bus1=SX2879064A.1.2 kv=0.208 status=variable Model=1 conn=wye kW=8.870000000000001 pf=0.97 Vmin=.88
New Load.138585C0 phases=2 Bus1=SX3197637C.1.2 kv=0.208 status=variable Model=1 conn=wye kW=7.070000000000001 pf=0.97 Vmin=.88
New Load.138586C0 phases=2 Bus1=SX2860487C.1.2 kv=0.208 status=variable Model=1 conn=wye kW=9.100000000000003 pf=0.97 Vmin=.88
New Load.138641C0 phases=2 Bus1=SX2841638C.1.2 kv=0.208 status=variable Model=1 conn=wye kW=9.099999999999994 pf=0.97 Vmin=.88
New Load.138642A0 phases=2 Bus1=SX3235256A.1.2 kv=0.208 status=variable Model=1 conn=wye kW=5.32 pf=0.97 Vmin=.88
New Load.138644A0 phases=2 Bus1=SX3197630A.1.2 kv=0.208 status=variable Model=1 conn=wye kW=8.870000000000001 pf=0.97 Vmin=.88
New Load.138645B0 phases=2 Bus1=SX3104120B.1.2 kv=0.208 status=variable Model=1 conn=wye kW=5.84 pf=0.97 Vmin=.88
New Load.138646A0 phases=2 Bus1=SX2804251A.1.2 kv=0.208 status=variable Model=1 conn=wye kW=3.55 pf=0.97 Vmin=.88
New Load.138647C0 phases=2 Bus1=SX3254210C.1.2 kv=0.208 status=variable Model=1 conn=wye kW=8.408735013008119 pf=0.97 Vmin=.88
New Load.138649A0 phases=2 Bus1=SX3048206A.1.2 kv=0.208 status=variable Model=1 conn=wye kW=8.870000000000001 pf=0.97 Vmin=.88
New Load.138650C0 phases=2 Bus1=SX2710510C.1.2 kv=0.208 status=variable Model=1 conn=wye kW=7.069999999999997 pf=0.97 Vmin=.88
New Load.138651C0 phases=2 Bus1=SX3197628C.1.2 kv=0.208 status=variable Model=1 conn=wye kW=10.17 pf=0.97 Vmin=.88
New Load.138652C0 phases=2 Bus1=SX2766718C.1.2 kv=0.208 status=variable Model=1 conn=wye kW=15.259999999999948 pf=0.97 Vmin=.88
New Load.138655A0 phases=2 Bus1=SX3010556A.1.2 kv=0.208 status=variable Model=1 conn=wye kW=5.32 pf=0.97 Vmin=.88
New Load.138679A0 phases=2 Bus1=SX2710520A.1.2 kv=0.208 status=variable Model=1 conn=wye kW=5.32 pf=0.97 Vmin=.88
New Load.138680A0 phases=2 Bus1=SX2710521A.1.2 kv=0.208 status=variable Model=1 conn=wye kW=11.869999999999994 pf=0.97 Vmin=.88
New Load.138684A0 phases=2 Bus1=SX3085396A.1.2 kv=0.208 status=variable Model=1 conn=wye kW=8.870000000000001 pf=0.97 Vmin=.88
New Load.138685A0 phases=2 Bus1=SX3122813A.1.2 kv=0.208 status=variable Model=1 conn=wye kW=5.32 pf=0.97 Vmin=.88
New Load.138716C0 phases=2 Bus1=SX3254219C.1.2 kv=0.208 status=variable Model=1 conn=wye kW=10.17 pf=0.97 Vmin=.88
New Load.138717C0 phases=2 Bus1=SX3254220C.1.2 kv=0.208 status=variable Model=1 conn=wye kW=10.17 pf=0.97 Vmin=.88
New Load.138718C0 phases=2 Bus1=SX3104134C.1.2 kv=0.208 status=variable Model=1 conn=wye kW=10.17 pf=0.97 Vmin=.88
New Load.138719A0 phases=2 Bus1=SX2860490A.1.2 kv=0.208 status=variable Model=1 conn=wye kW=11.870000000000001 pf=0.97 Vmin=.88
New Load.138720A0 phases=2 Bus1=SX3254218A.1.2 kv=0.208 status=variable Model=1 conn=wye kW=8.870000000000001 pf=0.97 Vmin=.88
New Load.138751B0 phases=2 Bus1=SX3066818B.1.2 kv=0.208 status=variable Model=1 conn=wye kW=12.730000000000004 pf=0.97 Vmin=.88
New Load.138752B0 phases=2 Bus1=SX2785528B.1.2 kv=0.208 status=variable Model=1 conn=wye kW=5.84 pf=0.97 Vmin=.88
New Load.138753B0 phases=2 Bus1=SX2748130B.1.2 kv=0.208 status=variable Model=1 conn=wye kW=12.73 pf=0.97 Vmin=.88
New Load.138754B0 phases=2 Bus1=SX3254212B.1.2 kv=0.208 status=variable Model=1 conn=wye kW=14.58999999999998 pf=0.97 Vmin=.88
New Load.138755B0 phases=2 Bus1=SX2785520B.1.2 kv=0.208 status=variable Model=1 conn=wye kW=3.8899999999999997 pf=0.97 Vmin=.88
New Load.138769A0 phases=2 Bus1=SX2729411A.1.2 kv=0.208 status=variable Model=1 conn=wye kW=6.549999999999997 pf=0.97 Vmin=.88
New Load.138770A0 phases=2 Bus1=SX2897781A.1.2 kv=0.208 status=variable Model=1 conn=wye kW=3.55 pf=0.97 Vmin=.88
New Load.138771A0 phases=2 Bus1=SX3197644A.1.2 kv=0.208 status=variable Model=1 conn=wye kW=8.320000000000002 pf=0.97 Vmin=.88
New Load.138776C0 phases=2 Bus1=SX3010566C.1.2 kv=0.208 status=variable Model=1 conn=wye kW=6.1 pf=0.97 Vmin=.88
New Load.138796B0 phases=2 Bus1=SX3236011B.1.2 kv=0.208 status=variable Model=1 conn=wye kW=5.84 pf=0.97 Vmin=.88
New Load.138797B0 phases=2 Bus1=SX3198358B.1.2 kv=0.208 status=variable Model=1 conn=wye kW=14.590000000000039 pf=0.97 Vmin=.88
New Load.138798B0 phases=2 Bus1=SX3104859B.1.2 kv=0.208 status=variable Model=1 conn=wye kW=5.84 pf=0.97 Vmin=.88
New Load.157715B0 phases=2 Bus1=SX2936275B.1.2 kv=0.208 status=variable Model=1 conn=wye kW=3.8899999999999997 pf=0.97 Vmin=.88
New Load.157716B0 phases=2 Bus1=SX3179674B.1.2 kv=0.208 status=variable Model=1 conn=wye kW=9.73 pf=0.97 Vmin=.88
New Load.157717B0 phases=2 Bus1=SX2748840B.1.2 kv=0.208 status=variable Model=1 conn=wye kW=5.84 pf=0.97 Vmin=.88
New Load.157718B0 phases=2 Bus1=SX3142099B.1.2 kv=0.208 status=variable Model=1 conn=wye kW=12.730000000000006 pf=0.97 Vmin=.88
New Load.207286C0 phases=2 Bus1=SX3011298C.1.2 kv=0.208 status=variable Model=1 conn=wye kW=4.07 pf=0.97 Vmin=.88
New Load.207287B0 phases=2 Bus1=SX2711234B.1.2 kv=0.208 status=variable Model=1 conn=wye kW=9.729999999999999 pf=0.97 Vmin=.88
New Load.207288B0 phases=2 Bus1=SX3198355B.1.2 kv=0.208 status=variable Model=1 conn=wye kW=3.89 pf=0.97 Vmin=.88
New Load.207290A0 phases=2 Bus1=SX2879773A.1.2 kv=0.208 status=variable Model=1 conn=wye kW=8.870000000000001 pf=0.97 Vmin=.88
New Load.207291C0 phases=2 Bus1=SX2786274C.1.2 kv=0.208 status=variable Model=1 conn=wye kW=10.17 pf=0.97 Vmin=.88
New Load.207292C0 phases=2 Bus1=SX3179682C.1.2 kv=0.208 status=variable Model=1 conn=wye kW=6.1000000000000005 pf=0.97 Vmin=.88
New Load.218472A0 phases=2 Bus1=SX2936270A.1.2 kv=0.208 status=variable Model=1 conn=wye kW=8.870000000000001 pf=0.97 Vmin=.88
New Load.218473A0 phases=2 Bus1=SX3086078A.1.2 kv=0.208 status=variable Model=1 conn=wye kW=8.870000000000001 pf=0.97 Vmin=.88
New Load.218474A0 phases=2 Bus1=SX3217056A.1.2 kv=0.208 status=variable Model=1 conn=wye kW=17.74000000000002 pf=0.97 Vmin=.88
New Load.218475A0 phases=2 Bus1=SX3217057A.1.2 kv=0.208 status=variable Model=1 conn=wye kW=3.55 pf=0.97 Vmin=.88
New Load.223655C0 phases=2 Bus1=SX2936268C.1.2 kv=0.208 status=variable Model=1 conn=wye kW=6.1 pf=0.97 Vmin=.88
New Load.223658A0 phases=2 Bus1=SX2823592A.1.2 kv=0.208 status=variable Model=1 conn=wye kW=3.770000000000004 pf=0.97 Vmin=.88
New Load.223660A0 phases=2 Bus1=SX3160863A.1.2 kv=0.208 status=variable Model=1 conn=wye kW=9.100000000000001 pf=0.97 Vmin=.88
New Load.223661B0 phases=2 Bus1=SX2730108B.1.2 kv=0.208 status=variable Model=1 conn=wye kW=6.1 pf=0.97 Vmin=.88
New Load.223662A0 phases=2 Bus1=SX2786204A.1.2 kv=0.208 status=variable Model=1 conn=wye kW=15.26000000000003 pf=0.97 Vmin=.88
New Load.223663C0 phases=2 Bus1=SX2936216C.1.2 kv=0.208 status=variable Model=1 conn=wye kW=6.42236114382742 pf=0.97 Vmin=.88
New Load.247036C0 phases=2 Bus1=SX3029498C.1.2 kv=0.208 status=variable Model=1 conn=wye kW=7.0699999999999985 pf=0.97 Vmin=.88
New Load.247056A0 phases=2 Bus1=SX2991912A.1.2 kv=0.208 status=variable Model=1 conn=wye kW=5.32 pf=0.97 Vmin=.88
New Load.247057A0 phases=2 Bus1=SX3104128A.1.2 kv=0.208 status=variable Model=1 conn=wye kW=5.32 pf=0.97 Vmin=.88
New Load.247058A0 phases=2 Bus1=SX2673315A.1.2 kv=0.208 status=variable Model=1 conn=wye kW=3.55 pf=0.97 Vmin=.88
New Load.247059A0 phases=2 Bus1=SX2766721A.1.2 kv=0.208 status=variable Model=1 conn=wye kW=14.93266713321208 pf=0.97 Vmin=.88
New Load.247060A0 phases=2 Bus1=SX2991906A.1.2 kv=0.208 status=variable Model=1 conn=wye kW=6.5500000000000025 pf=0.97 Vmin=.88
New Load.247061A0 phases=2 Bus1=SX2879054A.1.2 kv=0.208 status=variable Model=1 conn=wye kW=8.870000000000001 pf=0.97 Vmin=.88
New Load.247084B0 phases=2 Bus1=SX3254211B.1.2 kv=0.208 status=variable Model=1 conn=wye kW=9.73 pf=0.97 Vmin=.88
New Load.247100B0 phases=2 Bus1=SX2729407B.1.2 kv=0.208 status=variable Model=1 conn=wye kW=10.90418180942546 pf=0.97 Vmin=.88
New Load.247105B0 phases=2 Bus1=SX2691942B.1.2 kv=0.208 status=variable Model=1 conn=wye kW=5.84 pf=0.97 Vmin=.88
New Load.247122B0 phases=2 Bus1=SX3197629B.1.2 kv=0.208 status=variable Model=1 conn=wye kW=8.840000000000003 pf=0.97 Vmin=.88
New Load.247126B0 phases=2 Bus1=SX2879065B.1.2 kv=0.208 status=variable Model=1 conn=wye kW=3.8899999999999997 pf=0.97 Vmin=.88
New Load.247160B0 phases=2 Bus1=SX0247160B.1.2 kv=0.208 status=variable Model=1 conn=wye kW=8.840000000000003 pf=0.97 Vmin=.88
New Load.247162B0 phases=2 Bus1=SX0247162B.1.2 kv=0.208 status=variable Model=1 conn=wye kW=5.84 pf=0.97 Vmin=.88
New Load.247164B0 phases=2 Bus1=SX2766732B.1.2 kv=0.208 status=variable Model=1 conn=wye kW=3.89 pf=0.97 Vmin=.88
New Load.247170B0 phases=2 Bus1=SX2897784B.1.2 kv=0.208 status=variable Model=1 conn=wye kW=14.58999999999998 pf=0.97 Vmin=.88
New Load.247171B0 phases=2 Bus1=SX0247171B.1.2 kv=0.208 status=variable Model=1 conn=wye kW=5.84 pf=0.97 Vmin=.88
New Load.247184C0 phases=2 Bus1=SX2936279C.1.2 kv=0.208 status=variable Model=1 conn=wye kW=10.17 pf=0.97 Vmin=.88
New Load.247185B0 phases=2 Bus1=SX3179678B.1.2 kv=0.208 status=variable Model=1 conn=wye kW=5.84 pf=0.97 Vmin=.88
New Load.251828B0 phases=2 Bus1=SX3179650B.1.2 kv=0.208 status=variable Model=1 conn=wye kW=5.84 pf=0.97 Vmin=.88
New Load.251855C0 phases=2 Bus1=SX2730107C.1.2 kv=0.208 status=variable Model=1 conn=wye kW=10.17 pf=0.97 Vmin=.88
New Load.251856C0 phases=2 Bus1=SX3048888C.1.2 kv=0.208 status=variable Model=1 conn=wye kW=6.1 pf=0.97 Vmin=.88
New Load.251857C0 phases=2 Bus1=SX3064514C.1.2 kv=0.208 status=variable Model=1 conn=wye kW=9.099999999999994 pf=0.97 Vmin=.88
New Load.251858C0 phases=2 Bus1=SX2861158C.1.2 kv=0.208 status=variable Model=1 conn=wye kW=10.17 pf=0.97 Vmin=.88
New Load.251859C0 phases=2 Bus1=SX2952007C.1.2 kv=0.208 status=variable Model=1 conn=wye kW=10.17 pf=0.97 Vmin=.88
New Load.251862C0 phases=2 Bus1=SX3254873C.1.2 kv=0.208 status=variable Model=1 conn=wye kW=10.09014489650728 pf=0.97 Vmin=.88
New Load.251863C0 phases=2 Bus1=SX2745811C.1.2 kv=0.208 status=variable Model=1 conn=wye kW=10.17 pf=0.97 Vmin=.88
New Load.251865C0 phases=2 Bus1=SX3142050C.1.2 kv=0.208 status=variable Model=1 conn=wye kW=9.100000000000003 pf=0.97 Vmin=.88
New Load.251867C0 phases=2 Bus1=SX2861157C.1.2 kv=0.208 status=variable Model=1 conn=wye kW=10.17 pf=0.97 Vmin=.88
New Load.260457B0 phases=2 Bus1=SX3086079B.1.2 kv=0.208 status=variable Model=1 conn=wye kW=6.89 pf=0.97 Vmin=.88
New Load.260458B0 phases=2 Bus1=SX2936276B.1.2 kv=0.208 status=variable Model=1 conn=wye kW=6.889999999999997 pf=0.97 Vmin=.88
New Load.260461B0 phases=2 Bus1=SX2861223B.1.2 kv=0.208 status=variable Model=1 conn=wye kW=9.73 pf=0.97 Vmin=.88
New Load.260463B0 phases=2 Bus1=SX3086075B.1.2 kv=0.208 status=variable Model=1 conn=wye kW=5.84 pf=0.97 Vmin=.88
New Load.260464A0 phases=2 Bus1=SX2730187A.1.2 kv=0.208 status=variable Model=1 conn=wye kW=13.299999999999951 pf=0.97 Vmin=.88
New Load.260467A0 phases=2 Bus1=SX3104856A.1.2 kv=0.208 status=variable Model=1 conn=wye kW=5.32 pf=0.97 Vmin=.88
New Load.260473A0 phases=2 Bus1=SX2861222A.1.2 kv=0.208 status=variable Model=1 conn=wye kW=16.29999999999997 pf=0.97 Vmin=.88
New Load.260474A0 phases=2 Bus1=SX2917330A.1.2 kv=0.208 status=variable Model=1 conn=wye kW=11.870000000000005 pf=0.97 Vmin=.88
New Load.260475A0 phases=2 Bus1=SX2879794A.1.2 kv=0.208 status=variable Model=1 conn=wye kW=13.3 pf=0.97 Vmin=.88
New Load.260476A0 phases=2 Bus1=SX2936271A.1.2 kv=0.208 status=variable Model=1 conn=wye kW=5.32 pf=0.97 Vmin=.88
New Load.260479A0 phases=2 Bus1=SX2955074A.1.2 kv=0.208 status=variable Model=1 conn=wye kW=13.29999999999996 pf=0.97 Vmin=.88
New Load.260480C0 phases=2 Bus1=SX3030199C.1.2 kv=0.208 status=variable Model=1 conn=wye kW=10.17 pf=0.97 Vmin=.88
New Load.260481C0 phases=2 Bus1=SX2730163C.1.2 kv=0.208 status=variable Model=1 conn=wye kW=13.169999999999996 pf=0.97 Vmin=.88
New Load.260484A0 phases=2 Bus1=SX2992624A.1.2 kv=0.208 status=variable Model=1 conn=wye kW=5.32 pf=0.97 Vmin=.88
New Load.260487A0 phases=2 Bus1=SX2692654A.1.2 kv=0.208 status=variable Model=1 conn=wye kW=5.32 pf=0.97 Vmin=.88
New Load.260488A0 phases=2 Bus1=SX2842379A.1.2 kv=0.208 status=variable Model=1 conn=wye kW=13.30000000000005 pf=0.97 Vmin=.88
New Load.260491C0 phases=2 Bus1=SX2805031C.1.2 kv=0.208 status=variable Model=1 conn=wye kW=15.25999999999996 pf=0.97 Vmin=.88
New Load.260494B0 phases=2 Bus1=SX3068944B.1.2 kv=0.208 status=variable Model=1 conn=wye kW=14.59 pf=0.97 Vmin=.88
New Load.260495B0 phases=2 Bus1=SX2767407B.1.2 kv=0.208 status=variable Model=1 conn=wye kW=6.889999999999997 pf=0.97 Vmin=.88
New Load.260496B0 phases=2 Bus1=SX2879767B.1.2 kv=0.208 status=variable Model=1 conn=wye kW=3.8899999999999997 pf=0.97 Vmin=.88
New Load.260500B0 phases=2 Bus1=SX2711224B.1.2 kv=0.208 status=variable Model=1 conn=wye kW=3.89 pf=0.97 Vmin=.88
New Load.260501B0 phases=2 Bus1=SX3142098B.1.2 kv=0.208 status=variable Model=1 conn=wye kW=12.73 pf=0.97 Vmin=.88
New Load.260502B0 phases=2 Bus1=SX2748839B.1.2 kv=0.208 status=variable Model=1 conn=wye kW=3.8899999999999997 pf=0.97 Vmin=.88
New Load.260503B0 phases=2 Bus1=SX2917310B.1.2 kv=0.208 status=variable Model=1 conn=wye kW=8.840000000000003 pf=0.97 Vmin=.88
New Load.260505C0 phases=2 Bus1=SX2861218C.1.2 kv=0.208 status=variable Model=1 conn=wye kW=13.170000000000002 pf=0.97 Vmin=.88
New Load.260508A0 phases=2 Bus1=SX2955081A.1.2 kv=0.208 status=variable Model=1 conn=wye kW=5.32 pf=0.97 Vmin=.88
New Load.260511C0 phases=2 Bus1=SX3160878C.1.2 kv=0.208 status=variable Model=1 conn=wye kW=6.1 pf=0.97 Vmin=.88
New Load.260513C0 phases=2 Bus1=SX2917336C.1.2 kv=0.208 status=variable Model=1 conn=wye kW=6.1 pf=0.97 Vmin=.88
New Load.260514C0 phases=2 Bus1=SX2674047C.1.2 kv=0.208 status=variable Model=1 conn=wye kW=6.099999999999991 pf=0.97 Vmin=.88
New Load.260515A0 phases=2 Bus1=SX3160865A.1.2 kv=0.208 status=variable Model=1 conn=wye kW=8.870000000000001 pf=0.97 Vmin=.88
New Load.260517C0 phases=2 Bus1=SX2767408C.1.2 kv=0.208 status=variable Model=1 conn=wye kW=9.17277008295059 pf=0.97 Vmin=.88
New Load.260518C0 phases=2 Bus1=SX3104853C.1.2 kv=0.208 status=variable Model=1 conn=wye kW=13.169999999999996 pf=0.97 Vmin=.88
New Load.260520B0 phases=2 Bus1=SX3254915B.1.2 kv=0.208 status=variable Model=1 conn=wye kW=4.949999999999997 pf=0.97 Vmin=.88
New Load.260521B0 phases=2 Bus1=SX3048963B.1.2 kv=0.208 status=variable Model=1 conn=wye kW=5.84 pf=0.97 Vmin=.88
New Load.260527B0 phases=2 Bus1=SX2711226B.1.2 kv=0.208 status=variable Model=1 conn=wye kW=9.73 pf=0.97 Vmin=.88
New Load.260528C0 phases=2 Bus1=SX3217052C.1.2 kv=0.208 status=variable Model=1 conn=wye kW=10.17 pf=0.97 Vmin=.88
New Load.260529C0 phases=2 Bus1=SX3217053C.1.2 kv=0.208 status=variable Model=1 conn=wye kW=7.070000000000003 pf=0.97 Vmin=.88
New Load.260532C0 phases=2 Bus1=SX3086074C.1.2 kv=0.208 status=variable Model=1 conn=wye kW=6.1 pf=0.97 Vmin=.88
New Load.260535C0 phases=2 Bus1=SX3067507C.1.2 kv=0.208 status=variable Model=1 conn=wye kW=15.259999999999971 pf=0.97 Vmin=.88
New Load.260542A0 phases=2 Bus1=SX2955078A.1.2 kv=0.208 status=variable Model=1 conn=wye kW=8.87 pf=0.97 Vmin=.88
New Load.260543C0 phases=2 Bus1=SX2955077C.1.2 kv=0.208 status=variable Model=1 conn=wye kW=13.169999999999996 pf=0.97 Vmin=.88
New Load.260551C0 phases=2 Bus1=SX3160872C.1.2 kv=0.208 status=variable Model=1 conn=wye kW=15.25999999999998 pf=0.97 Vmin=.88
New Load.260552A0 phases=2 Bus1=SX3198348A.1.2 kv=0.208 status=variable Model=1 conn=wye kW=17.74000000000003 pf=0.97 Vmin=.88
New Load.260553C0 phases=2 Bus1=SX2711225C.1.2 kv=0.208 status=variable Model=1 conn=wye kW=6.1 pf=0.97 Vmin=.88
New Load.260554C0 phases=2 Bus1=SX3030200C.1.2 kv=0.208 status=variable Model=1 conn=wye kW=6.1 pf=0.97 Vmin=.88
New Load.260555A0 phases=2 Bus1=SX3048962A.1.2 kv=0.208 status=variable Model=1 conn=wye kW=13.29999999999997 pf=0.97 Vmin=.88
New Load.260558C0 phases=2 Bus1=SX3160861C.1.2 kv=0.208 status=variable Model=1 conn=wye kW=4.07 pf=0.97 Vmin=.88
New Load.260561C0 phases=2 Bus1=SX3104850C.1.2 kv=0.208 status=variable Model=1 conn=wye kW=10.17 pf=0.97 Vmin=.88
New Load.260562A0 phases=2 Bus1=SX3251799A.1.2 kv=0.208 status=variable Model=1 conn=wye kW=13.3 pf=0.97 Vmin=.88
New Load.260567C0 phases=2 Bus1=SX2936211C.1.2 kv=0.208 status=variable Model=1 conn=wye kW=6.1 pf=0.97 Vmin=.88
New Load.260568C0 phases=2 Bus1=SX2842329C.1.2 kv=0.208 status=variable Model=1 conn=wye kW=6.1 pf=0.97 Vmin=.88
New Load.260569C0 phases=2 Bus1=SX3104796C.1.2 kv=0.208 status=variable Model=1 conn=wye kW=10.17 pf=0.97 Vmin=.88
New Load.260572C0 phases=2 Bus1=SX3236004C.1.2 kv=0.208 status=variable Model=1 conn=wye kW=6.09999999999999 pf=0.97 Vmin=.88
New Load.260573C0 phases=2 Bus1=SX3160896C.1.2 kv=0.208 status=variable Model=1 conn=wye kW=6.1 pf=0.97 Vmin=.88
New Load.260574C0 phases=2 Bus1=SX3123452C.1.2 kv=0.208 status=variable Model=1 conn=wye kW=10.17 pf=0.97 Vmin=.88
New Load.260575B0 phases=2 Bus1=SX3254869B.1.2 kv=0.208 status=variable Model=1 conn=wye kW=5.84 pf=0.97 Vmin=.88
New Load.260576C0 phases=2 Bus1=SX3030126C.1.2 kv=0.208 status=variable Model=1 conn=wye kW=13.170000000000003 pf=0.97 Vmin=.88
New Load.260577C0 phases=2 Bus1=SX2767341C.1.2 kv=0.208 status=variable Model=1 conn=wye kW=15.25999999999995 pf=0.97 Vmin=.88
New Load.260581C0 phases=2 Bus1=SX3254870C.1.2 kv=0.208 status=variable Model=1 conn=wye kW=10.17 pf=0.97 Vmin=.88
New Load.260586B0 phases=2 Bus1=SX3048887B.1.2 kv=0.208 status=variable Model=1 conn=wye kW=14.59000000000002 pf=0.97 Vmin=.88
New Load.260589B0 phases=2 Bus1=SX2955005B.1.2 kv=0.208 status=variable Model=1 conn=wye kW=8.840000000000003 pf=0.97 Vmin=.88
New Load.260590B0 phases=2 Bus1=SX3216988B.1.2 kv=0.208 status=variable Model=1 conn=wye kW=9.73 pf=0.97 Vmin=.88
New Load.260591B0 phases=2 Bus1=SX3179607B.1.2 kv=0.208 status=variable Model=1 conn=wye kW=9.73 pf=0.97 Vmin=.88
New Load.260594A0 phases=2 Bus1=SX2898457A.1.2 kv=0.208 status=variable Model=1 conn=wye kW=6.550000000000001 pf=0.97 Vmin=.88
New Load.260595A0 phases=2 Bus1=SX2767340A.1.2 kv=0.208 status=variable Model=1 conn=wye kW=26.6 pf=0.97 Vmin=.88
New Load.260595B0 phases=2 Bus1=SX2767340B.1.2 kv=0.208 status=variable Model=1 conn=wye kW=29.17999999999995 pf=0.97 Vmin=.88
New Load.260595C0 phases=2 Bus1=SX2767340C.1.2 kv=0.208 status=variable Model=1 conn=wye kW=30.52000000000003 pf=0.97 Vmin=.88
New Load.260598A0 phases=2 Bus1=SX3067478A.1.2 kv=0.208 status=variable Model=1 conn=wye kW=13.299999999999999 pf=0.97 Vmin=.88
New Load.260601C0 phases=2 Bus1=SX2730149C.1.2 kv=0.208 status=variable Model=1 conn=wye kW=6.1 pf=0.97 Vmin=.88
New Load.260602B0 phases=2 Bus1=SX2989566B.1.2 kv=0.208 status=variable Model=1 conn=wye kW=5.84 pf=0.97 Vmin=.88
New Load.260605A0 phases=2 Bus1=SX2973791A.1.2 kv=0.208 status=variable Model=1 conn=wye kW=17.74 pf=0.97 Vmin=.88
New Load.260607B0 phases=2 Bus1=SX3029055B.1.2 kv=0.208 status=variable Model=1 conn=wye kW=14.58999999999997 pf=0.97 Vmin=.88
New Load.260620C0 phases=2 Bus1=SX3067506C.1.2 kv=0.208 status=variable Model=1 conn=wye kW=7.069999999999997 pf=0.97 Vmin=.88
...
